LAMMPS (29 Sep 2021 - Update 2)
# 2-d LJ flow simulation

dimension	2
boundary	p s p

atom_style	atomic
neighbor	0.3 bin
neigh_modify	delay 5

# create geometry

lattice		hex 0.7
Lattice spacing in x,y,z = 1.2843567 2.2245711 1.2843567
region		box block 0 20 0 10 -0.25 0.25
create_box	3 box
Created orthogonal box = (0.0000000 0.0000000 -0.32108918) to (25.687135 22.245711 0.32108918)
create_atoms	1 box
Created 420 atoms

mass		1 1.0
mass		2 1.0
mass		3 1.0

# LJ potentials

pair_style	lj/cut 11.2246
pair_coeff	* * 1.0 1.0 11.2246

# define groups

region	     1 block INF INF INF 1.25 INF INF
group	     lower region 1
60 atoms in group lower
region	     2 block INF INF 8.75 INF INF INF
group	     upper region 2
60 atoms in group upper
group	     boundary union lower upper
120 atoms in group boundary
group	     flow subtract all boundary
300 atoms in group flow

set	     group lower type 2
Setting atom values ...
  60 settings made for type
set	     group upper type 3
Setting atom values ...
  60 settings made for type

# initial velocities

compute	     mobile flow temp
velocity     all create 3.0 482748 temp mobile
fix	     1 all nve
fix	     2 flow temp/rescale 200 1.0 1.0 0.02 1.0
fix_modify   2 temp mobile

# Couette flow

velocity     lower set 0.0 0.0 0.0
velocity     upper set 3.0 0.0 0.0
fix	     3 boundary setforce 0.0 0.0 0.0
fix	     4 all enforce2d

# Poiseuille flow

#velocity     boundary set 0.0 0.0 0.0
#fix	     3 lower setforce 0.0 0.0 0.0
#fix	     4 upper setforce 0.0 NULL 0.0
#fix	     5 upper aveforce 0.0 -1.0 0.0
#fix	     6 flow addforce 0.5 0.0 0.0
#fix	     7 all enforce2d

# Run

timestep	0.003
thermo		500
thermo_modify	temp mobile

dump		1 all atom 500 dump.flow

compute         myRDF all rdf 50
fix             rdf all ave/time 50 1 500 c_myRDF[*] file rdf/tmp_3.0.rdf mode vector

#dump		2 all image 100 image.*.jpg type type #		zoom 1.6 adiam 1.2
#dump_modify	2 pad 5

#dump		3 all movie 100 movie.mpg type type #		zoom 1.6 adiam 1.2
#dump_modify	3 pad 5

run		10000
  update every 1 steps, delay 5 steps, check yes
Step Temp E_pair E_mol TotEng Press Volume
0            3   -2.1664468            0 -0.030732475   -1.9332657    571.54286
Averages over the last 11 of 21 rows, steps 5000 to 10000:
Temp E_pair E_mol TotEng Press Volume
1.01902 -2.04623 0 -1.32078 0.326297 571.543
Loop time of 2.75882 on 4 procs for 10000 steps with 420 atoms
